Version 4
SHEET 1 2828 708
WIRE 240 -336 192 -336
WIRE 512 -320 448 -320
WIRE 192 -304 192 -336
WIRE 448 -240 448 -320
WIRE 448 -240 368 -240
WIRE 544 -240 448 -240
WIRE 192 -176 192 -224
WIRE 544 -128 544 -240
WIRE 368 -112 368 -240
WIRE 544 -16 544 -48
WIRE 704 -16 544 -16
WIRE 864 -16 768 -16
WIRE 912 -16 864 -16
WIRE 544 32 544 -16
WIRE -416 96 -464 96
WIRE 208 96 -416 96
WIRE 496 96 272 96
WIRE 864 112 864 -16
WIRE 912 144 912 -16
WIRE -464 176 -464 96
WIRE 544 192 544 128
WIRE 720 192 544 192
WIRE 720 224 720 192
WIRE 368 240 368 -32
WIRE 544 240 544 192
WIRE -464 384 -464 256
WIRE 368 400 368 320
WIRE 464 400 368 400
WIRE 544 400 544 320
WIRE 544 400 464 400
WIRE 720 400 720 288
WIRE 720 400 544 400
WIRE 864 400 864 176
WIRE 864 400 720 400
WIRE 912 400 912 224
WIRE 912 400 864 400
WIRE 464 432 464 400
FLAG 464 432 0
FLAG 192 -176 0
FLAG 912 -16 Vo
FLAG 512 -320 Vcc
FLAG 240 -336 Vcc
FLAG -464 384 0
FLAG -416 96 Vi_AC
SYMBOL njf 496 32 R0
SYMATTR InstName J1
SYMATTR Value BF245A
SYMBOL res 528 224 R0
SYMATTR InstName R1
SYMATTR Value 300
SYMBOL res 352 224 R0
SYMATTR InstName R2
SYMATTR Value 1k
SYMBOL res 528 -144 R0
SYMATTR InstName R3
SYMATTR Value 287
SYMBOL res 352 -128 R0
SYMATTR InstName R4
SYMATTR Value 19k
SYMBOL cap 272 80 R90
WINDOW 0 0 32 VBottom 2
WINDOW 3 32 32 VTop 2
SYMATTR InstName C1
SYMATTR Value 10µ
SYMBOL cap 704 224 R0
SYMATTR InstName C2
SYMATTR Value 4.7µµ
SYMBOL cap 768 -32 R90
WINDOW 0 0 32 VBottom 2
WINDOW 3 32 32 VTop 2
SYMATTR InstName C3
SYMATTR Value 1µ
SYMBOL res 896 128 R0
SYMATTR InstName R5
SYMATTR Value 1k
SYMBOL voltage -464 160 R0
WINDOW 123 24 124 Left 2
WINDOW 39 0 0 Left 0
SYMATTR Value2 AC 1
SYMATTR InstName V1
SYMATTR Value ""
SYMBOL voltage 192 -320 R0
WINDOW 123 0 0 Left 0
WINDOW 39 0 0 Left 0
SYMATTR InstName V2
SYMATTR Value 9
SYMBOL cap 880 176 R180
WINDOW 0 24 56 Left 2
WINDOW 3 24 8 Left 2
SYMATTR InstName C4
SYMATTR Value 47n
TEXT 24 -448 Left 2 ;BUFFER
TEXT -800 -520 Left 2 !.MODEL BF245A NJF(VTO=-1.7372 BETA=1.16621m BETATCE=-0.5 LAMBDA=1.77211E-2 RD=9.01678 RS=9.01678 CGS=2.20000p CGD=2.20000p PB=7.80988E-1 IS=2.91797E-16 XTI=3 AF=1 FC=0.5 N=1 NR=2 MFG=PHILIPS)
TEXT 40 552 Left 2 !.ac dec 100 1 1meg
TEXT 528 512 Left 2 ;MEHMET BATUHAN ORAK 21828734
