Version 4
SHEET 1 2872 956
WIRE -1024 -544 -1072 -544
WIRE -992 -544 -1024 -544
WIRE -16 -512 -48 -512
WIRE 32 -512 -16 -512
WIRE -1072 -464 -1072 -544
WIRE -2464 -432 -2496 -432
WIRE -2416 -432 -2464 -432
WIRE -48 -400 -48 -512
WIRE -48 -400 -256 -400
WIRE 128 -400 -48 -400
WIRE -256 -320 -256 -400
WIRE 128 -320 128 -400
WIRE 1104 -320 1072 -320
WIRE 1152 -320 1104 -320
WIRE -1072 -304 -1072 -384
WIRE -2496 -240 -2496 -432
WIRE -2496 -240 -2608 -240
WIRE -2432 -240 -2496 -240
WIRE -2496 -224 -2496 -240
WIRE 1072 -144 1072 -320
WIRE -2432 -128 -2432 -240
WIRE -2608 -112 -2608 -240
WIRE 128 -112 128 -240
WIRE 304 -112 128 -112
WIRE 464 -112 368 -112
WIRE 544 -112 464 -112
WIRE 832 -112 544 -112
WIRE 1024 -112 832 -112
WIRE 128 -96 128 -112
WIRE 1472 -96 1152 -96
WIRE 1616 -96 1472 -96
WIRE 1744 -96 1680 -96
WIRE 1024 -80 976 -80
WIRE 128 -64 128 -96
WIRE -2432 -16 -2432 -48
WIRE -2272 -16 -2432 -16
WIRE -2112 -16 -2208 -16
WIRE -2064 -16 -2112 -16
WIRE -1984 -16 -2064 -16
WIRE -1712 -16 -1984 -16
WIRE -1552 -16 -1712 -16
WIRE -1392 -16 -1488 -16
WIRE -1232 -16 -1392 -16
WIRE -1040 -16 -1152 -16
WIRE -928 -16 -1040 -16
WIRE -624 -16 -928 -16
WIRE -416 -16 -624 -16
WIRE -256 -16 -256 -240
WIRE -256 -16 -352 -16
WIRE 32 -16 -256 -16
WIRE 64 -16 32 -16
WIRE 464 0 464 -112
WIRE 1472 0 1472 -96
WIRE -2432 32 -2432 -16
WIRE 1104 32 1104 -64
WIRE 1216 32 1104 32
WIRE 128 64 128 32
WIRE 320 64 128 64
WIRE -3168 96 -3216 96
WIRE -2880 96 -3168 96
WIRE -2768 96 -2880 96
WIRE -2608 96 -2608 -32
WIRE -2608 96 -2704 96
WIRE -2480 96 -2608 96
WIRE 1216 96 1216 32
WIRE -2112 112 -2112 -16
WIRE -256 112 -256 -16
WIRE 128 112 128 64
WIRE 320 112 320 64
WIRE -2064 144 -2064 -16
WIRE -1392 144 -1392 -16
WIRE 1744 144 1744 -96
WIRE -1040 160 -1040 -16
WIRE -3216 176 -3216 96
WIRE -2432 192 -2432 128
WIRE -2256 192 -2432 192
WIRE 1472 208 1472 80
WIRE -2256 224 -2256 192
WIRE -2608 240 -2608 96
WIRE -2432 240 -2432 192
WIRE -3216 336 -3216 256
WIRE -2608 400 -2608 320
WIRE -2512 400 -2608 400
WIRE -2432 400 -2432 320
WIRE -2432 400 -2512 400
WIRE -2256 400 -2256 288
WIRE -2256 400 -2432 400
WIRE -2112 400 -2112 176
WIRE -2112 400 -2256 400
WIRE -2064 400 -2064 224
WIRE -2064 400 -2112 400
WIRE -1392 416 -1392 224
WIRE -1232 416 -1392 416
WIRE -1040 416 -1040 224
WIRE -1040 416 -1232 416
WIRE -256 416 -256 192
WIRE 128 416 128 192
WIRE 128 416 -256 416
WIRE 320 416 320 176
WIRE 320 416 128 416
WIRE 464 416 464 64
WIRE 464 416 320 416
WIRE -2512 432 -2512 400
WIRE 976 432 976 -80
WIRE 1072 432 1072 -48
WIRE 1072 432 976 432
WIRE 1216 432 1216 160
WIRE 1216 432 1072 432
WIRE 1424 432 1216 432
WIRE 1472 432 1472 272
WIRE 1472 432 1424 432
WIRE 1744 432 1744 224
WIRE 1744 432 1472 432
WIRE 128 464 128 416
WIRE 1424 480 1424 432
WIRE -1232 496 -1232 416
FLAG -2512 432 0
FLAG -1984 -16 Vo_buffer
FLAG -2880 96 Vi_buffer
FLAG -1712 -16 Vi-bandpass-filter
FLAG -1232 496 0
FLAG -928 -16 Vo-bandpass-filter
FLAG 128 464 0
FLAG 128 -96 c
FLAG 32 -16 b
FLAG 128 64 e
FLAG 544 -112 Vo-gain
FLAG 1104 -320 Vcc
FLAG -1072 -304 0
FLAG -1024 -544 Vcc
FLAG -2464 -432 Vcc
FLAG -16 -512 Vcc
FLAG -624 -16 Vi-gain
FLAG -3168 96 Vi
FLAG 832 -112 system_inp
FLAG -3216 336 0
FLAG 1744 -96 speaker
FLAG 1424 480 0
SYMBOL njf -2480 32 R0
SYMATTR InstName J1
SYMATTR Value BF245A
SYMBOL res -2448 224 R0
SYMATTR InstName R1
SYMATTR Value 300
SYMBOL res -2624 224 R0
SYMATTR InstName R2
SYMATTR Value 1k
SYMBOL res -2448 -144 R0
SYMATTR InstName R3
SYMATTR Value 287
SYMBOL res -2624 -128 R0
SYMATTR InstName R4
SYMATTR Value 19k
SYMBOL cap -2704 80 R90
WINDOW 0 0 32 VBottom 2
WINDOW 3 32 32 VTop 2
SYMATTR InstName C1
SYMATTR Value 10µ
SYMBOL cap -2272 224 R0
SYMATTR InstName C2
SYMATTR Value 4.7µµ
SYMBOL cap -2208 -32 R90
WINDOW 0 0 32 VBottom 2
WINDOW 3 32 32 VTop 2
SYMATTR InstName C6
SYMATTR Value 1µ
SYMBOL res -2080 128 R0
SYMATTR InstName R7
SYMATTR Value 1k
SYMBOL voltage -3216 160 R0
WINDOW 123 24 124 Left 2
WINDOW 39 0 0 Left 0
WINDOW 3 24 44 Left 2
SYMATTR Value SINE(0 0.1 1k)
SYMATTR InstName V1
SYMBOL cap -2096 176 R180
WINDOW 0 24 56 Left 2
WINDOW 3 24 8 Left 2
SYMATTR InstName C7
SYMATTR Value 47n
SYMBOL res -1408 128 R0
SYMATTR InstName R8
SYMATTR Value 100k
SYMBOL cap -1488 -32 R90
WINDOW 0 0 32 VBottom 2
WINDOW 3 32 32 VTop 2
SYMATTR InstName C8
SYMATTR Value 4.68n
SYMBOL res -1136 -32 R90
WINDOW 0 0 56 VBottom 2
WINDOW 3 32 56 VTop 2
SYMATTR InstName R9
SYMATTR Value 100k
SYMBOL cap -1024 224 R180
WINDOW 0 24 56 Left 2
WINDOW 3 24 8 Left 2
SYMATTR InstName C9
SYMATTR Value 96p
SYMBOL res -272 96 R0
SYMATTR InstName R10
SYMATTR Value 4k
SYMBOL res 112 -336 R0
SYMATTR InstName RC1
SYMATTR Value 1005.2
SYMBOL res -272 -336 R0
SYMATTR InstName R11
SYMATTR Value 17.42k
SYMBOL cap -352 -32 R90
WINDOW 0 0 32 VBottom 2
WINDOW 3 32 32 VTop 2
SYMATTR InstName Cin1
SYMATTR Value 10µ
SYMBOL res 112 96 R0
SYMATTR InstName RE1
SYMATTR Value 244.8
SYMBOL npn 64 -64 R0
SYMATTR InstName Q1
SYMATTR Value 2N2222
SYMBOL cap 368 -128 R90
WINDOW 0 0 32 VBottom 2
WINDOW 3 32 32 VTop 2
SYMATTR InstName Cout1
SYMATTR Value 100µ
SYMBOL cap 304 112 R0
SYMATTR InstName CE1
SYMATTR Value 100µ
SYMBOL cap 480 64 R180
WINDOW 0 24 56 Left 2
WINDOW 3 24 8 Left 2
SYMATTR InstName Cwo1
SYMATTR Value 6.8n
SYMBOL cap 1200 96 R0
SYMATTR InstName C10
SYMATTR Value 1µ
SYMBOL cap 1680 -112 R90
WINDOW 0 0 32 VBottom 2
WINDOW 3 32 32 VTop 2
SYMATTR InstName C11
SYMATTR Value 100µ
SYMBOL res 1456 -16 R0
SYMATTR InstName R12
SYMATTR Value 10
SYMBOL res 1728 128 R0
SYMATTR InstName R13
SYMATTR Value 8
SYMBOL LM386 1088 -96 R0
SYMATTR InstName U2
SYMBOL cap 1488 208 M0
SYMATTR InstName C12
SYMATTR Value 100n
SYMBOL voltage -1072 -480 R0
WINDOW 123 0 0 Left 0
WINDOW 39 0 0 Left 0
SYMATTR InstName V2
SYMATTR Value 9
TEXT -2704 672 Left 7 ;buffer stage
TEXT -1264 -760 Left 2 !.MODEL BF245A NJF(VTO=-1.7372 BETA=1.16621m BETATCE=-0.5 LAMBDA=1.77211E-2 RD=9.01678 RS=9.01678 CGS=2.20000p CGD=2.20000p PB=7.80988E-1 IS=2.91797E-16 XTI=3 AF=1 FC=0.5 N=1 NR=2 MFG=PHILIPS)
TEXT -1504 -464 Left 2 !.tran 14ms
TEXT -1496 672 Left 7 ;bandpass
TEXT -176 680 Left 7 ;gain stage
TEXT 1112 672 Left 7 ;output stage
TEXT -1368 888 Left 7 ;MEHMET BATUHAN ORAK 21828734
